Git is a distributed version control system.
Git is free software distributed under the GPL.
Git has a mutable index called stage.
Git tracks changes of files.

I have learn Git again.
This is master branch.
New contend added to readme.

Made a conflit and Wait a conflit.

New line.
